&NAMDPARA
  BMIN       = 1
  BMAX       = 2
  EMIN       = -4.6
  EMAX       = -3.5
  NBANDS     = 2
  NKPOINTS   = 8100
  NINIBS     = 1
  Np         = 8100

  NSW        = 2200
  POTIM      = 1.0
  TEMP       = 300

  NSAMPLE    = 3
  NAMDTIME   = 2000
  NELM       = 1000
  NTRAJ      = 10000
  LHOLE      = .F.

  LEPC       = .T.
  LSORT      = .T.
  EPCTYPE    = 1
  NPARTS     = 14
  EPMDIR     = 'h5files/'
  EPMPREF    = 'graphene'
  SIGMA      = 0.025 ! eV
/
